CM Length X1 = .03556
CM Length X2 = .03556
CM Length Y = .04826
CM X sections = 10
CM Y sections = 10
CM Rotate X, Y, Z = 0, 0, 0
CM Move X, Y, Z = 0, 0, 0
CE
SY X=.03556
SY Y=.04826
SY p=X/10
SY q=Y/10
SY A=p*q
SY r=A/(6.2832*(p+q))
GW	1	1	-.01778	-.02413	0	-.01778	-.019304	0	.000326
GW	2	1	-.01778	-.019304	0	-.01778	-.014478	0	.000326
GW	3	1	-.01778	-.014478	0	-.01778	-.009652	0	.000326
GW	4	1	-.01778	-.009652	0	-.01778	-.004826	0	.000326
GW	5	1	-.01778	-.004826	0	-.01778	0	0	.000326
GW	6	1	-.01778	0	0	-.01778	.004826	0	.000326
GW	7	1	-.01778	.004826	0	-.01778	.009652	0	.000326
GW	8	1	-.01778	.009652	0	-.01778	.014478	0	.000326
GW	9	1	-.01778	.014478	0	-.01778	.019304	0	.000326
GW	10	1	-.01778	.019304	0	-.01778	.02413	0	.000326
GW	11	1	-.014224	-.02413	0	-.014224	-.019304	0	.000326
GW	12	1	-.014224	-.019304	0	-.014224	-.014478	0	.000326
GW	13	1	-.014224	-.014478	0	-.014224	-.009652	0	.000326
GW	14	1	-.014224	-.009652	0	-.014224	-.004826	0	.000326
GW	15	1	-.014224	-.004826	0	-.014224	0	0	.000326
GW	16	1	-.014224	0	0	-.014224	.004826	0	.000326
GW	17	1	-.014224	.004826	0	-.014224	.009652	0	.000326
GW	18	1	-.014224	.009652	0	-.014224	.014478	0	.000326
GW	19	1	-.014224	.014478	0	-.014224	.019304	0	.000326
GW	20	1	-.014224	.019304	0	-.014224	.02413	0	.000326
GW	21	1	-.010668	-.02413	0	-.010668	-.019304	0	.000326
GW	22	1	-.010668	-.019304	0	-.010668	-.014478	0	.000326
GW	23	1	-.010668	-.014478	0	-.010668	-.009652	0	.000326
GW	24	1	-.010668	-.009652	0	-.010668	-.004826	0	.000326
GW	25	1	-.010668	-.004826	0	-.010668	0	0	.000326
GW	26	1	-.010668	0	0	-.010668	.004826	0	.000326
GW	27	1	-.010668	.004826	0	-.010668	.009652	0	.000326
GW	28	1	-.010668	.009652	0	-.010668	.014478	0	.000326
GW	29	1	-.010668	.014478	0	-.010668	.019304	0	.000326
GW	30	1	-.010668	.019304	0	-.010668	.02413	0	.000326
GW	31	1	-.007112	-.02413	0	-.007112	-.019304	0	.000326
GW	32	1	-.007112	-.019304	0	-.007112	-.014478	0	.000326
GW	33	1	-.007112	-.014478	0	-.007112	-.009652	0	.000326
GW	34	1	-.007112	-.009652	0	-.007112	-.004826	0	.000326
GW	35	1	-.007112	-.004826	0	-.007112	0	0	.000326
GW	36	1	-.007112	0	0	-.007112	.004826	0	.000326
GW	37	1	-.007112	.004826	0	-.007112	.009652	0	.000326
GW	38	1	-.007112	.009652	0	-.007112	.014478	0	.000326
GW	39	1	-.007112	.014478	0	-.007112	.019304	0	.000326
GW	40	1	-.007112	.019304	0	-.007112	.02413	0	.000326
GW	41	1	-.003556	-.02413	0	-.003556	-.019304	0	.000326
GW	42	1	-.003556	-.019304	0	-.003556	-.014478	0	.000326
GW	43	1	-.003556	-.014478	0	-.003556	-.009652	0	.000326
GW	44	1	-.003556	-.009652	0	-.003556	-.004826	0	.000326
GW	45	1	-.003556	-.004826	0	-.003556	0	0	.000326
GW	46	1	-.003556	0	0	-.003556	.004826	0	.000326
GW	47	1	-.003556	.004826	0	-.003556	.009652	0	.000326
GW	48	1	-.003556	.009652	0	-.003556	.014478	0	.000326
GW	49	1	-.003556	.014478	0	-.003556	.019304	0	.000326
GW	50	1	-.003556	.019304	0	-.003556	.02413	0	.000326
GW	51	1	0	-.02413	0	0	-.019304	0	.000326
GW	52	1	0	-.019304	0	0	-.014478	0	.000326
GW	53	1	0	-.014478	0	0	-.009652	0	.000326
GW	54	1	0	-.009652	0	0	-.004826	0	.000326
GW	55	1	0	-.004826	0	0	0	0	.000326
GW	56	1	0	0	0	0	.004826	0	.000326
GW	57	1	0	.004826	0	0	.009652	0	.000326
GW	58	1	0	.009652	0	0	.014478	0	.000326
GW	59	1	0	.014478	0	0	.019304	0	.000326
GW	60	1	0	.019304	0	0	.02413	0	.000326
GW	61	1	.003556	-.02413	0	.003556	-.019304	0	.000326
GW	62	1	.003556	-.019304	0	.003556	-.014478	0	.000326
GW	63	1	.003556	-.014478	0	.003556	-.009652	0	.000326
GW	64	1	.003556	-.009652	0	.003556	-.004826	0	.000326
GW	65	1	.003556	-.004826	0	.003556	0	0	.000326
GW	66	1	.003556	0	0	.003556	.004826	0	.000326
GW	67	1	.003556	.004826	0	.003556	.009652	0	.000326
GW	68	1	.003556	.009652	0	.003556	.014478	0	.000326
GW	69	1	.003556	.014478	0	.003556	.019304	0	.000326
GW	70	1	.003556	.019304	0	.003556	.02413	0	.000326
GW	71	1	.007112	-.02413	0	.007112	-.019304	0	.000326
GW	72	1	.007112	-.019304	0	.007112	-.014478	0	.000326
GW	73	1	.007112	-.014478	0	.007112	-.009652	0	.000326
GW	74	1	.007112	-.009652	0	.007112	-.004826	0	.000326
GW	75	1	.007112	-.004826	0	.007112	0	0	.000326
GW	76	1	.007112	0	0	.007112	.004826	0	.000326
GW	77	1	.007112	.004826	0	.007112	.009652	0	.000326
GW	78	1	.007112	.009652	0	.007112	.014478	0	.000326
GW	79	1	.007112	.014478	0	.007112	.019304	0	.000326
GW	80	1	.007112	.019304	0	.007112	.02413	0	.000326
GW	81	1	.010668	-.02413	0	.010668	-.019304	0	.000326
GW	82	1	.010668	-.019304	0	.010668	-.014478	0	.000326
GW	83	1	.010668	-.014478	0	.010668	-.009652	0	.000326
GW	84	1	.010668	-.009652	0	.010668	-.004826	0	.000326
GW	85	1	.010668	-.004826	0	.010668	0	0	.000326
GW	86	1	.010668	0	0	.010668	.004826	0	.000326
GW	87	1	.010668	.004826	0	.010668	.009652	0	.000326
GW	88	1	.010668	.009652	0	.010668	.014478	0	.000326
GW	89	1	.010668	.014478	0	.010668	.019304	0	.000326
GW	90	1	.010668	.019304	0	.010668	.02413	0	.000326
GW	91	1	.014224	-.02413	0	.014224	-.019304	0	.000326
GW	92	1	.014224	-.019304	0	.014224	-.014478	0	.000326
GW	93	1	.014224	-.014478	0	.014224	-.009652	0	.000326
GW	94	1	.014224	-.009652	0	.014224	-.004826	0	.000326
GW	95	1	.014224	-.004826	0	.014224	0	0	.000326
GW	96	1	.014224	0	0	.014224	.004826	0	.000326
GW	97	1	.014224	.004826	0	.014224	.009652	0	.000326
GW	98	1	.014224	.009652	0	.014224	.014478	0	.000326
GW	99	1	.014224	.014478	0	.014224	.019304	0	.000326
GW	100	1	.014224	.019304	0	.014224	.02413	0	.000326
GW	101	1	.01778	-.02413	0	.01778	-.019304	0	.000326
GW	102	1	.01778	-.019304	0	.01778	-.014478	0	.000326
GW	103	1	.01778	-.014478	0	.01778	-.009652	0	.000326
GW	104	1	.01778	-.009652	0	.01778	-.004826	0	.000326
GW	105	1	.01778	-.004826	0	.01778	0	0	.000326
GW	106	1	.01778	0	0	.01778	.004826	0	.000326
GW	107	1	.01778	.004826	0	.01778	.009652	0	.000326
GW	108	1	.01778	.009652	0	.01778	.014478	0	.000326
GW	109	1	.01778	.014478	0	.01778	.019304	0	.000326
GW	110	1	.01778	.019304	0	.01778	.02413	0	.000326
GW	111	1	-.01778	-.02413	0	-.014224	-.02413	0	.000326
GW	112	1	-.014224	-.02413	0	-.010668	-.02413	0	.000326
GW	113	1	-.010668	-.02413	0	-.007112	-.02413	0	.000326
GW	114	1	-.007112	-.02413	0	-.003556	-.02413	0	.000326
GW	115	1	-.003556	-.02413	0	0	-.02413	0	.000326
GW	116	1	0	-.02413	0	.003556	-.02413	0	.000326
GW	117	1	.003556	-.02413	0	.007112	-.02413	0	.000326
GW	118	1	.007112	-.02413	0	.010668	-.02413	0	.000326
GW	119	1	.010668	-.02413	0	.014224	-.02413	0	.000326
GW	120	1	.014224	-.02413	0	.01778	-.02413	0	.000326
GW	121	1	-.01778	-.019304	0	-.014224	-.019304	0	.000326
GW	122	1	-.014224	-.019304	0	-.010668	-.019304	0	.000326
GW	123	1	-.010668	-.019304	0	-.007112	-.019304	0	.000326
GW	124	1	-.007112	-.019304	0	-.003556	-.019304	0	.000326
GW	125	1	-.003556	-.019304	0	0	-.019304	0	.000326
GW	126	1	0	-.019304	0	.003556	-.019304	0	.000326
GW	127	1	.003556	-.019304	0	.007112	-.019304	0	.000326
GW	128	1	.007112	-.019304	0	.010668	-.019304	0	.000326
GW	129	1	.010668	-.019304	0	.014224	-.019304	0	.000326
GW	130	1	.014224	-.019304	0	.01778	-.019304	0	.000326
GW	131	1	-.01778	-.014478	0	-.014224	-.014478	0	.000326
GW	132	1	-.014224	-.014478	0	-.010668	-.014478	0	.000326
GW	133	1	-.010668	-.014478	0	-.007112	-.014478	0	.000326
GW	134	1	-.007112	-.014478	0	-.003556	-.014478	0	.000326
GW	135	1	-.003556	-.014478	0	0	-.014478	0	.000326
GW	136	1	0	-.014478	0	.003556	-.014478	0	.000326
GW	137	1	.003556	-.014478	0	.007112	-.014478	0	.000326
GW	138	1	.007112	-.014478	0	.010668	-.014478	0	.000326
GW	139	1	.010668	-.014478	0	.014224	-.014478	0	.000326
GW	140	1	.014224	-.014478	0	.01778	-.014478	0	.000326
GW	141	1	-.01778	-.009652	0	-.014224	-.009652	0	.000326
GW	142	1	-.014224	-.009652	0	-.010668	-.009652	0	.000326
GW	143	1	-.010668	-.009652	0	-.007112	-.009652	0	.000326
GW	144	1	-.007112	-.009652	0	-.003556	-.009652	0	.000326
GW	145	1	-.003556	-.009652	0	0	-.009652	0	.000326
GW	146	1	0	-.009652	0	.003556	-.009652	0	.000326
GW	147	1	.003556	-.009652	0	.007112	-.009652	0	.000326
GW	148	1	.007112	-.009652	0	.010668	-.009652	0	.000326
GW	149	1	.010668	-.009652	0	.014224	-.009652	0	.000326
GW	150	1	.014224	-.009652	0	.01778	-.009652	0	.000326
GW	151	1	-.01778	-.004826	0	-.014224	-.004826	0	.000326
GW	152	1	-.014224	-.004826	0	-.010668	-.004826	0	.000326
GW	153	1	-.010668	-.004826	0	-.007112	-.004826	0	.000326
GW	154	1	-.007112	-.004826	0	-.003556	-.004826	0	.000326
GW	155	1	-.003556	-.004826	0	0	-.004826	0	.000326
GW	156	1	0	-.004826	0	.003556	-.004826	0	.000326
GW	157	1	.003556	-.004826	0	.007112	-.004826	0	.000326
GW	158	1	.007112	-.004826	0	.010668	-.004826	0	.000326
GW	159	1	.010668	-.004826	0	.014224	-.004826	0	.000326
GW	160	1	.014224	-.004826	0	.01778	-.004826	0	.000326
GW	161	1	-.01778	0	0	-.014224	0	0	.000326
GW	162	1	-.014224	0	0	-.010668	0	0	.000326
GW	163	1	-.010668	0	0	-.007112	0	0	.000326
GW	164	1	-.007112	0	0	-.003556	0	0	.000326
GW	165	1	-.003556	0	0	0	0	0	.000326
GW	166	1	0	0	0	.003556	0	0	.000326
GW	167	1	.003556	0	0	.007112	0	0	.000326
GW	168	1	.007112	0	0	.010668	0	0	.000326
GW	169	1	.010668	0	0	.014224	0	0	.000326
GW	170	1	.014224	0	0	.01778	0	0	.000326
GW	171	1	-.01778	.004826	0	-.014224	.004826	0	.000326
GW	172	1	-.014224	.004826	0	-.010668	.004826	0	.000326
GW	173	1	-.010668	.004826	0	-.007112	.004826	0	.000326
GW	174	1	-.007112	.004826	0	-.003556	.004826	0	.000326
GW	175	1	-.003556	.004826	0	0	.004826	0	.000326
GW	176	1	0	.004826	0	.003556	.004826	0	.000326
GW	177	1	.003556	.004826	0	.007112	.004826	0	.000326
GW	178	1	.007112	.004826	0	.010668	.004826	0	.000326
GW	179	1	.010668	.004826	0	.014224	.004826	0	.000326
GW	180	1	.014224	.004826	0	.01778	.004826	0	.000326
GW	181	1	-.01778	.009652	0	-.014224	.009652	0	.000326
GW	182	1	-.014224	.009652	0	-.010668	.009652	0	.000326
GW	183	1	-.010668	.009652	0	-.007112	.009652	0	.000326
GW	184	1	-.007112	.009652	0	-.003556	.009652	0	.000326
GW	185	1	-.003556	.009652	0	0	.009652	0	.000326
GW	186	1	0	.009652	0	.003556	.009652	0	.000326
GW	187	1	.003556	.009652	0	.007112	.009652	0	.000326
GW	188	1	.007112	.009652	0	.010668	.009652	0	.000326
GW	189	1	.010668	.009652	0	.014224	.009652	0	.000326
GW	190	1	.014224	.009652	0	.01778	.009652	0	.000326
GW	191	1	-.01778	.014478	0	-.014224	.014478	0	.000326
GW	192	1	-.014224	.014478	0	-.010668	.014478	0	.000326
GW	193	1	-.010668	.014478	0	-.007112	.014478	0	.000326
GW	194	1	-.007112	.014478	0	-.003556	.014478	0	.000326
GW	195	1	-.003556	.014478	0	0	.014478	0	.000326
GW	196	1	0	.014478	0	.003556	.014478	0	.000326
GW	197	1	.003556	.014478	0	.007112	.014478	0	.000326
GW	198	1	.007112	.014478	0	.010668	.014478	0	.000326
GW	199	1	.010668	.014478	0	.014224	.014478	0	.000326
GW	200	1	.014224	.014478	0	.01778	.014478	0	.000326
GW	201	1	-.01778	.019304	0	-.014224	.019304	0	.000326
GW	202	1	-.014224	.019304	0	-.010668	.019304	0	.000326
GW	203	1	-.010668	.019304	0	-.007112	.019304	0	.000326
GW	204	1	-.007112	.019304	0	-.003556	.019304	0	.000326
GW	205	1	-.003556	.019304	0	0	.019304	0	.000326
GW	206	1	0	.019304	0	.003556	.019304	0	.000326
GW	207	1	.003556	.019304	0	.007112	.019304	0	.000326
GW	208	1	.007112	.019304	0	.010668	.019304	0	.000326
GW	209	1	.010668	.019304	0	.014224	.019304	0	.000326
GW	210	1	.014224	.019304	0	.01778	.019304	0	.000326
GW	211	1	-.01778	.02413	0	-.014224	.02413	0	.000326
GW	212	1	-.014224	.02413	0	-.010668	.02413	0	.000326
GW	213	1	-.010668	.02413	0	-.007112	.02413	0	.000326
GW	214	1	-.007112	.02413	0	-.003556	.02413	0	.000326
GW	215	1	-.003556	.02413	0	0	.02413	0	.000326
GW	216	1	0	.02413	0	.003556	.02413	0	.000326
GW	217	1	.003556	.02413	0	.007112	.02413	0	.000326
GW	218	1	.007112	.02413	0	.010668	.02413	0	.000326
GW	219	1	.010668	.02413	0	.014224	.02413	0	.000326
GW	220	1	.014224	.02413	0	.01778	.02413	0	.000326
GW	221	1	-.01778	-.08255	.01	-.01778	-.06604	.01	.000466
GW	222	1	-.01778	-.06604	.01	-.01778	-.04953	.01	.000466
GW	223	1	-.01778	-.04953	.01	-.01778	-.03302	.01	.000466
GW	224	1	-.01778	-.03302	.01	-.01778	-.01651	.01	.000466
GW	225	1	-.01778	-.01651	.01	-.01778	0	.01	.000466
GW	226	1	-.01778	0	.01	-.01778	.01651	.01	.000466
GW	227	1	-.01778	.01651	.01	-.01778	.03302	.01	.000466
GW	228	1	-.01778	.03302	.01	-.01778	.04953	.01	.000466
GW	229	1	-.01778	.04953	.01	-.01778	.06604	.01	.000466
GW	230	1	-.01778	.06604	.01	-.01778	.08255	.01	.000466
GW	231	1	-.014224	-.08255	.01	-.014224	-.06604	.01	.000466
GW	232	1	-.014224	-.06604	.01	-.014224	-.04953	.01	.000466
GW	233	1	-.014224	-.04953	.01	-.014224	-.03302	.01	.000466
GW	234	1	-.014224	-.03302	.01	-.014224	-.01651	.01	.000466
GW	235	1	-.014224	-.01651	.01	-.014224	0	.01	.000466
GW	236	1	-.014224	0	.01	-.014224	.01651	.01	.000466
GW	237	1	-.014224	.01651	.01	-.014224	.03302	.01	.000466
GW	238	1	-.014224	.03302	.01	-.014224	.04953	.01	.000466
GW	239	1	-.014224	.04953	.01	-.014224	.06604	.01	.000466
GW	240	1	-.014224	.06604	.01	-.014224	.08255	.01	.000466
GW	241	1	-.010668	-.08255	.01	-.010668	-.06604	.01	.000466
GW	242	1	-.010668	-.06604	.01	-.010668	-.04953	.01	.000466
GW	243	1	-.010668	-.04953	.01	-.010668	-.03302	.01	.000466
GW	244	1	-.010668	-.03302	.01	-.010668	-.01651	.01	.000466
GW	245	1	-.010668	-.01651	.01	-.010668	0	.01	.000466
GW	246	1	-.010668	0	.01	-.010668	.01651	.01	.000466
GW	247	1	-.010668	.01651	.01	-.010668	.03302	.01	.000466
GW	248	1	-.010668	.03302	.01	-.010668	.04953	.01	.000466
GW	249	1	-.010668	.04953	.01	-.010668	.06604	.01	.000466
GW	250	1	-.010668	.06604	.01	-.010668	.08255	.01	.000466
GW	251	1	-.007112	-.08255	.01	-.007112	-.06604	.01	.000466
GW	252	1	-.007112	-.06604	.01	-.007112	-.04953	.01	.000466
GW	253	1	-.007112	-.04953	.01	-.007112	-.03302	.01	.000466
GW	254	1	-.007112	-.03302	.01	-.007112	-.01651	.01	.000466
GW	255	1	-.007112	-.01651	.01	-.007112	0	.01	.000466
GW	256	1	-.007112	0	.01	-.007112	.01651	.01	.000466
GW	257	1	-.007112	.01651	.01	-.007112	.03302	.01	.000466
GW	258	1	-.007112	.03302	.01	-.007112	.04953	.01	.000466
GW	259	1	-.007112	.04953	.01	-.007112	.06604	.01	.000466
GW	260	1	-.007112	.06604	.01	-.007112	.08255	.01	.000466
GW	261	1	-.003556	-.08255	.01	-.003556	-.06604	.01	.000466
GW	262	1	-.003556	-.06604	.01	-.003556	-.04953	.01	.000466
GW	263	1	-.003556	-.04953	.01	-.003556	-.03302	.01	.000466
GW	264	1	-.003556	-.03302	.01	-.003556	-.01651	.01	.000466
GW	265	1	-.003556	-.01651	.01	-.003556	0	.01	.000466
GW	266	1	-.003556	0	.01	-.003556	.01651	.01	.000466
GW	267	1	-.003556	.01651	.01	-.003556	.03302	.01	.000466
GW	268	1	-.003556	.03302	.01	-.003556	.04953	.01	.000466
GW	269	1	-.003556	.04953	.01	-.003556	.06604	.01	.000466
GW	270	1	-.003556	.06604	.01	-.003556	.08255	.01	.000466
GW	271	1	0	-.08255	.01	0	-.06604	.01	.000466
GW	272	1	0	-.06604	.01	0	-.04953	.01	.000466
GW	273	1	0	-.04953	.01	0	-.03302	.01	.000466
GW	274	1	0	-.03302	.01	0	-.01651	.01	.000466
GW	275	1	0	-.01651	.01	0	0	.01	.000466
GW	276	1	0	0	.01	0	.01651	.01	.000466
GW	277	1	0	.01651	.01	0	.03302	.01	.000466
GW	278	1	0	.03302	.01	0	.04953	.01	.000466
GW	279	1	0	.04953	.01	0	.06604	.01	.000466
GW	280	1	0	.06604	.01	0	.08255	.01	.000466
GW	281	1	.003556	-.08255	.01	.003556	-.06604	.01	.000466
GW	282	1	.003556	-.06604	.01	.003556	-.04953	.01	.000466
GW	283	1	.003556	-.04953	.01	.003556	-.03302	.01	.000466
GW	284	1	.003556	-.03302	.01	.003556	-.01651	.01	.000466
GW	285	1	.003556	-.01651	.01	.003556	0	.01	.000466
GW	286	1	.003556	0	.01	.003556	.01651	.01	.000466
GW	287	1	.003556	.01651	.01	.003556	.03302	.01	.000466
GW	288	1	.003556	.03302	.01	.003556	.04953	.01	.000466
GW	289	1	.003556	.04953	.01	.003556	.06604	.01	.000466
GW	290	1	.003556	.06604	.01	.003556	.08255	.01	.000466
GW	291	1	.007112	-.08255	.01	.007112	-.06604	.01	.000466
GW	292	1	.007112	-.06604	.01	.007112	-.04953	.01	.000466
GW	293	1	.007112	-.04953	.01	.007112	-.03302	.01	.000466
GW	294	1	.007112	-.03302	.01	.007112	-.01651	.01	.000466
GW	295	1	.007112	-.01651	.01	.007112	0	.01	.000466
GW	296	1	.007112	0	.01	.007112	.01651	.01	.000466
GW	297	1	.007112	.01651	.01	.007112	.03302	.01	.000466
GW	298	1	.007112	.03302	.01	.007112	.04953	.01	.000466
GW	299	1	.007112	.04953	.01	.007112	.06604	.01	.000466
GW	300	1	.007112	.06604	.01	.007112	.08255	.01	.000466
GW	301	1	.010668	-.08255	.01	.010668	-.06604	.01	.000466
GW	302	1	.010668	-.06604	.01	.010668	-.04953	.01	.000466
GW	303	1	.010668	-.04953	.01	.010668	-.03302	.01	.000466
GW	304	1	.010668	-.03302	.01	.010668	-.01651	.01	.000466
GW	305	1	.010668	-.01651	.01	.010668	0	.01	.000466
GW	306	1	.010668	0	.01	.010668	.01651	.01	.000466
GW	307	1	.010668	.01651	.01	.010668	.03302	.01	.000466
GW	308	1	.010668	.03302	.01	.010668	.04953	.01	.000466
GW	309	1	.010668	.04953	.01	.010668	.06604	.01	.000466
GW	310	1	.010668	.06604	.01	.010668	.08255	.01	.000466
GW	311	1	.014224	-.08255	.01	.014224	-.06604	.01	.000466
GW	312	1	.014224	-.06604	.01	.014224	-.04953	.01	.000466
GW	313	1	.014224	-.04953	.01	.014224	-.03302	.01	.000466
GW	314	1	.014224	-.03302	.01	.014224	-.01651	.01	.000466
GW	315	1	.014224	-.01651	.01	.014224	0	.01	.000466
GW	316	1	.014224	0	.01	.014224	.01651	.01	.000466
GW	317	1	.014224	.01651	.01	.014224	.03302	.01	.000466
GW	318	1	.014224	.03302	.01	.014224	.04953	.01	.000466
GW	319	1	.014224	.04953	.01	.014224	.06604	.01	.000466
GW	320	1	.014224	.06604	.01	.014224	.08255	.01	.000466
GW	321	1	.01778	-.08255	.01	.01778	-.06604	.01	.000466
GW	322	1	.01778	-.06604	.01	.01778	-.04953	.01	.000466
GW	323	1	.01778	-.04953	.01	.01778	-.03302	.01	.000466
GW	324	1	.01778	-.03302	.01	.01778	-.01651	.01	.000466
GW	325	1	.01778	-.01651	.01	.01778	0	.01	.000466
GW	326	1	.01778	0	.01	.01778	.01651	.01	.000466
GW	327	1	.01778	.01651	.01	.01778	.03302	.01	.000466
GW	328	1	.01778	.03302	.01	.01778	.04953	.01	.000466
GW	329	1	.01778	.04953	.01	.01778	.06604	.01	.000466
GW	330	1	.01778	.06604	.01	.01778	.08255	.01	.000466
GW	331	1	-.01778	-.08255	.01	-.014224	-.08255	.01	.000466
GW	332	1	-.014224	-.08255	.01	-.010668	-.08255	.01	.000466
GW	333	1	-.010668	-.08255	.01	-.007112	-.08255	.01	.000466
GW	334	1	-.007112	-.08255	.01	-.003556	-.08255	.01	.000466
GW	335	1	-.003556	-.08255	.01	0	-.08255	.01	.000466
GW	336	1	0	-.08255	.01	.003556	-.08255	.01	.000466
GW	337	1	.003556	-.08255	.01	.007112	-.08255	.01	.000466
GW	338	1	.007112	-.08255	.01	.010668	-.08255	.01	.000466
GW	339	1	.010668	-.08255	.01	.014224	-.08255	.01	.000466
GW	340	1	.014224	-.08255	.01	.01778	-.08255	.01	.000466
GW	341	1	-.01778	-.06604	.01	-.014224	-.06604	.01	.000466
GW	342	1	-.014224	-.06604	.01	-.010668	-.06604	.01	.000466
GW	343	1	-.010668	-.06604	.01	-.007112	-.06604	.01	.000466
GW	344	1	-.007112	-.06604	.01	-.003556	-.06604	.01	.000466
GW	345	1	-.003556	-.06604	.01	0	-.06604	.01	.000466
GW	346	1	0	-.06604	.01	.003556	-.06604	.01	.000466
GW	347	1	.003556	-.06604	.01	.007112	-.06604	.01	.000466
GW	348	1	.007112	-.06604	.01	.010668	-.06604	.01	.000466
GW	349	1	.010668	-.06604	.01	.014224	-.06604	.01	.000466
GW	350	1	.014224	-.06604	.01	.01778	-.06604	.01	.000466
GW	351	1	-.01778	-.04953	.01	-.014224	-.04953	.01	.000466
GW	352	1	-.014224	-.04953	.01	-.010668	-.04953	.01	.000466
GW	353	1	-.010668	-.04953	.01	-.007112	-.04953	.01	.000466
GW	354	1	-.007112	-.04953	.01	-.003556	-.04953	.01	.000466
GW	355	1	-.003556	-.04953	.01	0	-.04953	.01	.000466
GW	356	1	0	-.04953	.01	.003556	-.04953	.01	.000466
GW	357	1	.003556	-.04953	.01	.007112	-.04953	.01	.000466
GW	358	1	.007112	-.04953	.01	.010668	-.04953	.01	.000466
GW	359	1	.010668	-.04953	.01	.014224	-.04953	.01	.000466
GW	360	1	.014224	-.04953	.01	.01778	-.04953	.01	.000466
GW	361	1	-.01778	-.03302	.01	-.014224	-.03302	.01	.000466
GW	362	1	-.014224	-.03302	.01	-.010668	-.03302	.01	.000466
GW	363	1	-.010668	-.03302	.01	-.007112	-.03302	.01	.000466
GW	364	1	-.007112	-.03302	.01	-.003556	-.03302	.01	.000466
GW	365	1	-.003556	-.03302	.01	0	-.03302	.01	.000466
GW	366	1	0	-.03302	.01	.003556	-.03302	.01	.000466
GW	367	1	.003556	-.03302	.01	.007112	-.03302	.01	.000466
GW	368	1	.007112	-.03302	.01	.010668	-.03302	.01	.000466
GW	369	1	.010668	-.03302	.01	.014224	-.03302	.01	.000466
GW	370	1	.014224	-.03302	.01	.01778	-.03302	.01	.000466
GW	371	1	-.01778	-.01651	.01	-.014224	-.01651	.01	.000466
GW	372	1	-.014224	-.01651	.01	-.010668	-.01651	.01	.000466
GW	373	1	-.010668	-.01651	.01	-.007112	-.01651	.01	.000466
GW	374	1	-.007112	-.01651	.01	-.003556	-.01651	.01	.000466
GW	375	1	-.003556	-.01651	.01	0	-.01651	.01	.000466
GW	376	1	0	-.01651	.01	.003556	-.01651	.01	.000466
GW	377	1	.003556	-.01651	.01	.007112	-.01651	.01	.000466
GW	378	1	.007112	-.01651	.01	.010668	-.01651	.01	.000466
GW	379	1	.010668	-.01651	.01	.014224	-.01651	.01	.000466
GW	380	1	.014224	-.01651	.01	.01778	-.01651	.01	.000466
GW	381	1	-.01778	0	.01	-.014224	0	.01	.000466
GW	382	1	-.014224	0	.01	-.010668	0	.01	.000466
GW	383	1	-.010668	0	.01	-.007112	0	.01	.000466
GW	384	1	-.007112	0	.01	-.003556	0	.01	.000466
GW	385	1	-.003556	0	.01	0	0	.01	.000466
GW	386	1	0	0	.01	.003556	0	.01	.000466
GW	387	1	.003556	0	.01	.007112	0	.01	.000466
GW	388	1	.007112	0	.01	.010668	0	.01	.000466
GW	389	1	.010668	0	.01	.014224	0	.01	.000466
GW	390	1	.014224	0	.01	.01778	0	.01	.000466
GW	391	1	-.01778	.01651	.01	-.014224	.01651	.01	.000466
GW	392	1	-.014224	.01651	.01	-.010668	.01651	.01	.000466
GW	393	1	-.010668	.01651	.01	-.007112	.01651	.01	.000466
GW	394	1	-.007112	.01651	.01	-.003556	.01651	.01	.000466
GW	395	1	-.003556	.01651	.01	0	.01651	.01	.000466
GW	396	1	0	.01651	.01	.003556	.01651	.01	.000466
GW	397	1	.003556	.01651	.01	.007112	.01651	.01	.000466
GW	398	1	.007112	.01651	.01	.010668	.01651	.01	.000466
GW	399	1	.010668	.01651	.01	.014224	.01651	.01	.000466
GW	400	1	.014224	.01651	.01	.01778	.01651	.01	.000466
GW	401	1	-.01778	.03302	.01	-.014224	.03302	.01	.000466
GW	402	1	-.014224	.03302	.01	-.010668	.03302	.01	.000466
GW	403	1	-.010668	.03302	.01	-.007112	.03302	.01	.000466
GW	404	1	-.007112	.03302	.01	-.003556	.03302	.01	.000466
GW	405	1	-.003556	.03302	.01	0	.03302	.01	.000466
GW	406	1	0	.03302	.01	.003556	.03302	.01	.000466
GW	407	1	.003556	.03302	.01	.007112	.03302	.01	.000466
GW	408	1	.007112	.03302	.01	.010668	.03302	.01	.000466
GW	409	1	.010668	.03302	.01	.014224	.03302	.01	.000466
GW	410	1	.014224	.03302	.01	.01778	.03302	.01	.000466
GW	411	1	-.01778	.04953	.01	-.014224	.04953	.01	.000466
GW	412	1	-.014224	.04953	.01	-.010668	.04953	.01	.000466
GW	413	1	-.010668	.04953	.01	-.007112	.04953	.01	.000466
GW	414	1	-.007112	.04953	.01	-.003556	.04953	.01	.000466
GW	415	1	-.003556	.04953	.01	0	.04953	.01	.000466
GW	416	1	0	.04953	.01	.003556	.04953	.01	.000466
GW	417	1	.003556	.04953	.01	.007112	.04953	.01	.000466
GW	418	1	.007112	.04953	.01	.010668	.04953	.01	.000466
GW	419	1	.010668	.04953	.01	.014224	.04953	.01	.000466
GW	420	1	.014224	.04953	.01	.01778	.04953	.01	.000466
GW	421	1	-.01778	.06604	.01	-.014224	.06604	.01	.000466
GW	422	1	-.014224	.06604	.01	-.010668	.06604	.01	.000466
GW	423	1	-.010668	.06604	.01	-.007112	.06604	.01	.000466
GW	424	1	-.007112	.06604	.01	-.003556	.06604	.01	.000466
GW	425	1	-.003556	.06604	.01	0	.06604	.01	.000466
GW	426	1	0	.06604	.01	.003556	.06604	.01	.000466
GW	427	1	.003556	.06604	.01	.007112	.06604	.01	.000466
GW	428	1	.007112	.06604	.01	.010668	.06604	.01	.000466
GW	429	1	.010668	.06604	.01	.014224	.06604	.01	.000466
GW	430	1	.014224	.06604	.01	.01778	.06604	.01	.000466
GW	431	1	-.01778	.08255	.01	-.014224	.08255	.01	.000466
GW	432	1	-.014224	.08255	.01	-.010668	.08255	.01	.000466
GW	433	1	-.010668	.08255	.01	-.007112	.08255	.01	.000466
GW	434	1	-.007112	.08255	.01	-.003556	.08255	.01	.000466
GW	435	1	-.003556	.08255	.01	0	.08255	.01	.000466
GW	436	1	0	.08255	.01	.003556	.08255	.01	.000466
GW	437	1	.003556	.08255	.01	.007112	.08255	.01	.000466
GW	438	1	.007112	.08255	.01	.010668	.08255	.01	.000466
GW	439	1	.010668	.08255	.01	.014224	.08255	.01	.000466
GW	440	1	.014224	.08255	.01	.01778	.08255	.01	.000466
GW	500	1	0	0	0	0	0	.01	.0001
GE	0
GN	-1
EK
EX	0	500	1	0	1	0	0
FR	0	0	0	0	915	0
EN
